FoamFile
{
    version     2.0;
    format      ascii;
    class       volScalarField;
    location    "0";
    object      p;
}

dimensions      [1 -1 -2 0 0 0 0];

internalField   uniform 103500;

boundaryField
{
    inlet
    {
        type            calculated;
        value           $internalField;
    }
    outlet
    {
        type            calculated;
        value           $internalField;
    }
    bottom
    {
        type            calculated;
        value           $internalField;
    }
    top
    {
        type            calculated;
        value           $internalField;
    }
    SolidHole
    {
        type            calculated;
        value           $internalField;
    }
    BroodHole
    {
        type            calculated;
        value           $internalField;
    }
    frontAndBack
    {
        type            empty;
    }
}

